Version 4
SHEET 1 2212 680
WIRE -48 -976 -208 -976
WIRE 48 -976 -48 -976
WIRE 272 -976 48 -976
WIRE 336 -976 272 -976
WIRE 448 -976 432 -976
WIRE 608 -976 448 -976
WIRE 272 -960 272 -976
WIRE 448 -960 448 -976
WIRE -208 -912 -208 -976
WIRE -48 -912 -48 -976
WIRE 48 -912 48 -976
WIRE 272 -864 272 -880
WIRE 352 -864 352 -928
WIRE 352 -864 272 -864
WIRE 448 -864 448 -896
WIRE 448 -864 432 -864
WIRE 272 -848 272 -864
WIRE 1760 -816 1616 -816
WIRE 1776 -816 1760 -816
WIRE 1872 -816 1856 -816
WIRE 1984 -816 1984 -848
WIRE 1984 -816 1872 -816
WIRE 1760 -800 1760 -816
WIRE 1872 -800 1872 -816
WIRE 1984 -800 1984 -816
WIRE -208 -784 -208 -832
WIRE 48 -784 48 -832
WIRE 128 -784 48 -784
WIRE 128 -768 128 -784
WIRE 288 -736 288 -768
WIRE 1984 -704 1984 -720
WIRE 48 -672 48 -784
WIRE 128 -656 128 -688
WIRE 224 -656 128 -656
WIRE -48 -640 -48 -832
WIRE -48 -640 -112 -640
WIRE 0 -640 -48 -640
WIRE 128 -640 128 -656
WIRE -112 -624 -112 -640
WIRE -48 -624 -48 -640
WIRE -112 -528 -112 -560
WIRE -48 -528 -48 -544
WIRE -48 -528 -112 -528
WIRE 48 -528 48 -624
WIRE 48 -528 -48 -528
WIRE 128 -528 128 -560
WIRE 128 -528 48 -528
WIRE 272 -528 272 -640
WIRE 272 -528 128 -528
WIRE 272 -512 272 -528
WIRE 608 -464 608 -976
WIRE 1616 -464 1616 -816
WIRE 1616 -464 608 -464
WIRE 1760 -464 1616 -464
WIRE 1776 -464 1760 -464
WIRE 1872 -464 1856 -464
WIRE 1984 -464 1984 -496
WIRE 1984 -464 1872 -464
WIRE 1760 -448 1760 -464
WIRE 1872 -448 1872 -464
WIRE 1984 -448 1984 -464
WIRE 1984 -352 1984 -368
WIRE -208 -272 -208 -336
WIRE 112 -272 -208 -272
WIRE 240 -272 240 -320
WIRE 240 -272 208 -272
WIRE 320 -272 240 -272
WIRE 448 -272 416 -272
WIRE 608 -272 608 -464
WIRE 608 -272 448 -272
WIRE 848 -272 608 -272
WIRE 1008 -272 848 -272
WIRE 1088 -272 1008 -272
WIRE 1200 -272 1184 -272
WIRE 1504 -272 1200 -272
WIRE 448 -256 448 -272
WIRE 1200 -256 1200 -272
WIRE -208 -208 -208 -272
WIRE 1024 -192 848 -192
WIRE 1104 -192 1104 -224
WIRE 1200 -192 1184 -192
WIRE 192 -176 192 -224
WIRE 240 -176 240 -192
WIRE 240 -176 192 -176
WIRE 336 -176 336 -224
WIRE 336 -176 240 -176
WIRE 352 -176 336 -176
WIRE 448 -176 448 -192
WIRE 448 -176 432 -176
WIRE 192 -160 192 -176
WIRE 1008 -96 1008 -272
WIRE 1504 -80 1504 -272
WIRE 1584 -80 1504 -80
WIRE 1600 -80 1584 -80
WIRE 1696 -80 1680 -80
WIRE 1888 -80 1696 -80
WIRE 1984 -80 1984 -112
WIRE 1984 -80 1888 -80
WIRE 1584 -64 1584 -80
WIRE 1696 -64 1696 -80
WIRE -208 -48 -208 -128
WIRE 192 -48 192 -80
WIRE 1984 -48 1984 -80
WIRE 1984 48 1984 32
WIRE 608 80 608 -272
WIRE 1088 80 608 80
WIRE 1200 80 1184 80
WIRE 1584 80 1200 80
WIRE 1888 80 1888 -80
WIRE 1888 80 1584 80
WIRE 1200 96 1200 80
WIRE 1584 96 1584 80
WIRE 1008 160 1008 -16
WIRE 1024 160 1008 160
WIRE 1104 160 1104 128
WIRE 1200 160 1184 160
WIRE 1008 176 1008 160
WIRE 848 256 848 -192
WIRE 880 256 848 256
WIRE 1008 288 1008 272
WIRE 848 432 848 256
FLAG -208 -784 0
FLAG 272 -512 0
FLAG 1984 -704 0
FLAG -208 -48 0
FLAG 848 464 0
FLAG 240 -320 STU_VDD
FLAG 1760 -736 0
FLAG 1872 -736 0
FLAG 1984 -352 0
FLAG 1760 -384 0
FLAG 1872 -384 0
FLAG 1984 48 0
FLAG 1584 0 0
FLAG 1696 0 0
FLAG 1984 -848 LOAD0
FLAG 1984 -496 LOAD1
FLAG 1984 -112 LOAD2
FLAG -208 -336 V_USB
FLAG 1008 288 0
FLAG 192 -48 0
FLAG 1584 160 0
SYMBOL voltage -208 -928 R0
WINDOW 123 0 0 Left 0
WINDOW 39 0 0 Left 0
SYMATTR InstName V1
SYMATTR Value 12
SYMBOL res -64 -928 R0
SYMATTR InstName R1
SYMATTR Value 75k
SYMBOL res -64 -640 R0
SYMATTR InstName R3
SYMATTR Value 16k
SYMBOL cap -128 -624 R0
SYMATTR InstName C2
SYMATTR Value 1n
SYMBOL res 256 -864 R0
SYMATTR InstName R5
SYMATTR Value 22k
SYMBOL res 256 -976 R0
SYMATTR InstName R6
SYMATTR Value 100k
SYMBOL res 1968 -816 R0
SYMATTR InstName RL0
SYMATTR Value 25
SYMBOL res 224 -288 R0
SYMATTR InstName R7
SYMATTR Value 100k
SYMBOL res 176 -176 R0
SYMATTR InstName R8
SYMATTR Value 22k
SYMBOL res 448 -192 R90
WINDOW 0 0 56 VBottom 2
WINDOW 3 32 56 VTop 2
SYMATTR InstName R9
SYMATTR Value 100
SYMBOL cap 432 -256 R0
SYMATTR InstName C3
SYMATTR Value 100n
SYMBOL voltage -208 -224 R0
WINDOW 123 0 0 Left 0
WINDOW 39 0 0 Left 0
SYMATTR InstName V2
SYMATTR Value 5
SYMBOL res 1120 -208 R90
WINDOW 0 0 56 VBottom 2
WINDOW 3 32 56 VTop 2
SYMATTR InstName R11
SYMATTR Value 22k
SYMBOL res 1200 -208 R90
WINDOW 0 0 56 VBottom 2
WINDOW 3 32 56 VTop 2
SYMATTR InstName R12
SYMATTR Value 100
SYMBOL cap 1184 -256 R0
SYMATTR InstName C4
SYMATTR Value 100n
SYMBOL res 1120 144 R90
WINDOW 0 0 56 VBottom 2
WINDOW 3 32 56 VTop 2
SYMATTR InstName R14
SYMATTR Value 22k
SYMBOL res 1200 144 R90
WINDOW 0 0 56 VBottom 2
WINDOW 3 32 56 VTop 2
SYMATTR InstName R15
SYMATTR Value 100
SYMBOL cap 1184 96 R0
SYMATTR InstName C5
SYMATTR Value 100n
SYMBOL cap 1744 -800 R0
SYMATTR InstName C7
SYMATTR Value 10µ
SYMBOL res 1872 -832 R90
WINDOW 0 0 56 VBottom 2
WINDOW 3 32 56 VTop 2
SYMATTR InstName R22
SYMATTR Value 0
SYMBOL cap 1856 -800 R0
SYMATTR InstName C8
SYMATTR Value 10µ
SYMBOL res 1968 -464 R0
SYMATTR InstName RL1
SYMATTR Value 25
SYMBOL cap 1744 -448 R0
SYMATTR InstName C9
SYMATTR Value 10µ
SYMBOL res 1872 -480 R90
WINDOW 0 0 56 VBottom 2
WINDOW 3 32 56 VTop 2
SYMATTR InstName R23
SYMATTR Value 0
SYMBOL cap 1856 -448 R0
SYMATTR InstName C10
SYMATTR Value 10µ
SYMBOL res 1968 -64 R0
SYMATTR InstName RL2
SYMATTR Value 2
SYMBOL cap 1568 -64 R0
SYMATTR InstName C11
SYMATTR Value 10µ
SYMBOL res 1696 -96 R90
WINDOW 0 0 56 VBottom 2
WINDOW 3 32 56 VTop 2
SYMATTR InstName R24
SYMATTR Value 0
SYMBOL cap 1680 -64 R0
SYMATTR InstName C12
SYMATTR Value 10µ
SYMBOL res 832 -288 R0
SYMATTR InstName R10
SYMATTR Value 100k
SYMBOL AutoGenerated\\2N7002BK 960 176 R0
SYMATTR InstName U1
SYMBOL res 976 240 R90
WINDOW 0 0 56 VBottom 2
WINDOW 3 32 56 VTop 2
SYMATTR InstName R13
SYMATTR Value 22k
SYMBOL res 992 -112 R0
SYMATTR InstName R16
SYMATTR Value 100k
SYMBOL cap 1568 96 R0
SYMATTR InstName C6
SYMATTR Value 10µ
SYMBOL res 448 -880 R90
WINDOW 0 0 56 VBottom 2
WINDOW 3 32 56 VTop 2
SYMATTR InstName R2
SYMATTR Value 100
SYMBOL cap 432 -960 R0
SYMATTR InstName C13
SYMATTR Value 100n
SYMBOL res 32 -928 R0
SYMATTR InstName R4
SYMATTR Value 20k
SYMBOL AutoGenerated\\TL431LI_TRANS 48 -656 R0
WINDOW 0 15 39 Left 2
WINDOW 3 -196 -46 Left 2
SYMATTR InstName U2
SYMBOL res 112 -656 R0
SYMATTR InstName R18
SYMATTR Value 100k
SYMBOL AutoGenerated\\2N7002BK 224 -736 R0
SYMATTR InstName U5
SYMBOL res 112 -784 R0
SYMATTR InstName R19
SYMATTR Value 100k
SYMBOL AutoGenerated\\DMPH4015SSS 1184 128 M270
SYMATTR InstName U4
SYMBOL AutoGenerated\\DMPH4015SSS 1184 -224 M270
SYMATTR InstName U6
SYMBOL AutoGenerated\\DMPH4015SSS 416 -224 M270
SYMATTR InstName U7
SYMBOL AutoGenerated\\DMPH4015SSS 112 -224 R270
SYMATTR InstName U8
SYMBOL AutoGenerated\\DMPH4015SSS 432 -928 M270
SYMATTR InstName U3
TEXT 16 216 Left 2 !.tran 200m
