Version 4
SHEET 1 1484 680
WIRE 48 -1104 48 -1136
WIRE 208 -1104 48 -1104
WIRE 288 -1104 208 -1104
WIRE 432 -1104 288 -1104
WIRE 640 -1104 640 -1136
WIRE 640 -1104 496 -1104
WIRE 768 -1104 640 -1104
WIRE 992 -1104 768 -1104
WIRE 1120 -1104 992 -1104
WIRE 1424 -1104 1424 -1136
WIRE 1424 -1104 1184 -1104
WIRE 992 -1088 992 -1104
WIRE 208 -1056 208 -1104
WIRE 48 -1040 48 -1104
WIRE 1152 -1024 1152 -1040
WIRE 1152 -1024 1088 -1024
WIRE 464 -1008 464 -1040
WIRE 1152 -1008 1152 -1024
WIRE 992 -992 992 -1008
WIRE 1088 -992 1088 -1024
WIRE 1088 -992 992 -992
WIRE 288 -960 288 -1104
WIRE 320 -960 288 -960
WIRE 640 -960 640 -1104
WIRE 640 -960 608 -960
WIRE 1424 -960 1424 -1104
WIRE 768 -944 768 -1104
WIRE 864 -944 768 -944
WIRE 288 -928 288 -960
WIRE 320 -928 288 -928
WIRE 768 -928 768 -944
WIRE 864 -928 864 -944
WIRE 1152 -912 1152 -928
WIRE 208 -864 208 -992
WIRE 320 -864 208 -864
WIRE 640 -864 608 -864
WIRE 768 -832 768 -848
WIRE 864 -832 864 -848
WIRE 864 -832 768 -832
WIRE 992 -832 864 -832
WIRE 1072 -832 992 -832
WIRE 864 -816 864 -832
WIRE 992 -816 992 -832
WIRE 768 -768 768 -832
WIRE 768 -768 704 -768
WIRE 816 -768 768 -768
WIRE 704 -752 704 -768
WIRE 768 -752 768 -768
WIRE 992 -720 992 -736
WIRE 1152 -720 1152 -752
WIRE 1152 -720 992 -720
WIRE 704 -656 704 -688
WIRE 768 -656 768 -672
WIRE 768 -656 704 -656
WIRE 864 -656 864 -720
WIRE 864 -656 768 -656
WIRE 1152 -656 1152 -720
WIRE 1152 -656 864 -656
WIRE 48 -640 48 -960
WIRE 640 -640 640 -864
WIRE 1152 -640 1152 -656
WIRE 1424 -640 1424 -880
FLAG 48 -640 0
FLAG 640 -640 0
FLAG 1152 -640 0
FLAG 1424 -640 0
FLAG 48 -1136 VIN
FLAG 640 -1136 VREV
FLAG 1424 -1136 VLOAD
SYMBOL AutoGenerated\\LM74700-Q1_TRANS 464 -928 R0
SYMATTR InstName U1
SYMBOL AutoGenerated\\BSS127S 1120 -832 M270
SYMATTR InstName U4
SYMBOL AutoGenerated\\SQD40N06-14L 464 -1072 R0
SYMATTR InstName U2
SYMBOL cap 192 -1056 R0
SYMATTR InstName C1
SYMATTR Value 100p
SYMBOL AutoGenerated\\SQD40N06-14L 1152 -1072 M0
SYMATTR InstName U3
SYMBOL voltage 48 -1056 R0
WINDOW 123 0 0 Left 0
WINDOW 39 0 0 Left 0
SYMATTR InstName V1
SYMATTR Value 10
SYMBOL AutoGenerated\\TL431 848 -768 R0
SYMATTR InstName U5
SYMBOL res 752 -944 R0
SYMATTR InstName R1
SYMATTR Value 47k
SYMBOL res 848 -944 R0
SYMATTR InstName R2
SYMATTR Value 20k
SYMBOL res 752 -768 R0
SYMATTR InstName R3
SYMATTR Value 5k23
SYMBOL cap 688 -752 R0
SYMATTR InstName C2
SYMATTR Value 1n
SYMBOL res 976 -832 R0
SYMATTR InstName R4
SYMATTR Value 100k
SYMBOL res 1136 -1024 R0
SYMATTR InstName R5
SYMATTR Value 150k
SYMBOL res 976 -1104 R0
SYMATTR InstName R6
SYMATTR Value 100k
SYMBOL res 1408 -976 R0
SYMATTR InstName RL
SYMATTR Value 25
TEXT 14 -616 Left 2 !.tran 10m
