*SRC=BZT52C3V3T;DI_BZT52C3V3T;Diodes;Zener <=10V; 3.30V  0.15W   Diodes Inc.
-
*SYM=HZEN
.SUBCKT DI_BZT52C3V3T  1 2
*        Terminals    A   K
D1 1 2 DF
DZ 3 1 DR
VZ 2 3 0.827
.MODEL DF D ( IS=62.4p RS=36.2 N=1.10
+ CJO=403p VJ=0.750 M=0.330 TT=50.1n )
.MODEL DR D ( IS=12.5f RS=79.5 N=3.00).ENDS
