**$ENCRYPTED_LIB
**$INTERFACE
* LM74700-Q1
*****************************************************************************
* (C) Copyright 2018 Texas Instruments Incorporated. All rights reserved.
*****************************************************************************
** This model is designed as an aid for customers of Texas Instruments.
** TI and its licensors and suppliers make no warranties, either expressed
** or implied, with respect to this model, including the warranties of
** merchantability or fitness for a particular purpose. The model is
** provided solely on an "as is" basis. The entire risk as to its quality
** and performance is with the customer.
*****************************************************************************
*
** Released by: WEBENCH Design Center, Texas Instruments Inc.
* Part: LM74700-Q1
* Date: 12DEC2018
* Model Type: Transient
* Simulator: PSPICE
* Simulator Version: 16.2.0.s003
* EVM Order Number:
* EVM Users Guide:
* Datasheet:
*
* Model Version: Final 1.00
*
*****************************************************************************
*
* Updates:
*
* Final 1.00
* Release to Web
*
*****************************************************************************
*$
.SUBCKT LM74700-Q1_TRANS ANODE CATHODE EN GATE_DRIVE GND VCAPH  
$CDNENCSTART
eee8c5c7a2bc4b01f045f303678664e7916da0bae22e8cb0bba041dd67c69ce448ea70148a9ac1670c8926c1ac5057c8ccfcd77bf87ca9dce85b4d476637fec8
0dea85bdd2f617054961e977ee15a47ff393d01577e93c5c36806a8e381bf9a0d69094802ebc065789b414a2ac6db25c224e502efabf84ab7724b43b0707501c
86cc9b8e540ce763f45310c19b6b8ee5194806c6e36a7f4cf7697c596096847baa5c51d52a440abc2619958cce288ec8f68f6aade77db5cb2e3aab0e7d7a83b0
0360226f8a32fa74a10c96eea04075889b6994632cf49d1a6e63f3c7fcf57341bbaa9b3a0beda065cad3dc3ee62511321e80d4eadb9605f3369cfd415a45ccc9
1fcbc249eb9471530302a8c30efa8eddc176214d1cd0e1f898594bbc49cfddd68128d567d8fde99900d3e0b087c73744aa5c51d52a440abcfc80cd3be5b31651
04f5acd939422ec0957673035b26e32b46e7973acedb45e7f50cfd012131d36d96bb47952d01c0d2bf1ee911780421dd97507e4658088978daf9cfcb3734ee6e
132c28fc637839274e222169e8110db0e71f71e187584171d69094802ebc065789b414a2ac6db25c224e502efabf84abe148d4916cec1601ad9454457a22f58c
2b5ca304638161c4706b807646b8037139d812286f7cdd4a10001558ea8f8cb08f39b859a084feb37208a85e1aefd30a6dd4a45bd8bc8b28eb6b02801230c0f4
9a2567ee2e4633ce75755f45b02833131b317dc2c22f6171e25c928e25c1c6125be1afaaab23162d3c31b72735314eab57bbf97222b9e5e59054ad295051514f
a2faec34d68cdd2a088e9ff44a6e1fdfe15d4277f7372bedfd4750a4deb62bd5f2a599fa722e95df71dfbaa4143f8634b5f1c17ee7956303e85b4d476637fec8
c2ddab009ee03f10be00a2a37fc213affee9f38d8555a6e71010b22bcf767c4c6baa4c351fc5e3ad60a188d940e604c11933952b4dcad44cddbcbfc1bd38a8ed
67d2eff95da56274d3aa8ccd28aac12e8eb1539348fcc439ca8d627b0d2a43a8bbab58ed3cead79a982cbf72cb7ab1fa5ec4e19573a18882a437ff0dd55ab612
4b6085f2012636675a0aa31c52cddba976617f42cd5d956bd69094802ebc065789b414a2ac6db25c224e502efabf84abe148d4916cec1601ad9454457a22f58c
39b56735282d89731b335ff6669122150be3a72497745c1550919c9711fd23db815d7dbb7029f8e324fdfd9bb2e10b071341312a70d378bf49cf575c9d27cb8d
ba2ef43a142cbed6be00a2a37fc213af8d99734d289e922aa765576b11efd16f93f0978bcaae26c25e907deffd12c5ffdd06c2baef735caed656dab8877def08
998fd920f4f159aa15dda4ec81e72d7447c6b1555096167c50283016164c2fcc797098c792a05f90a416970c2428e55bbc9c4d5e199af8237c693dcf37191f9a
e513bba6d3228b87ae0be8cd49991eab9e670400e3d62a5c47c6b1555096167c50283016164c2fcc797098c792a05f90a416970c2428e55b7128f3e7a7ea02f5
4c8c128bbe02d9149ed675755dc3339701a7ac1a3f4a6acefee3eeeef2f305d79ed19320aa4a366f9c99a6f8ecce348375963efd3ee34e160ff63032dc4e41c4
bfd81d659a09e4b3d24b51ea77d6888875755f45b02833131b317dc2c22f6171e25c928e25c1c6125be1afaaab23162d3c31b72735314eabb4e0768c86bf9cdd
4b6085f2012636678ee5eab1ce21437ba8da116b912f6aca0f090d5b57717962d69094802ebc065789b414a2ac6db25c224e502efabf84ab7724b43b0707501c
f803d96900cb54eb2fbfcc2b872ff946c2414cb5012fe2fa437e7f0b7afec78b82004879c71d4d5efb39caa823c4ddd75911b2e9db277617789dfe9e3750721c
f448aa8b445158d3c55c8187f39b70be97507e46580889781f69eb0caa589dd3b88bc428e0c4161d0cce0bf39d27aa7897ad024f0949ecc6bfed438ee98c3697
4b6085f2012636675a0aa31c52cddba976617f42cd5d956bd69094802ebc065789b414a2ac6db25c224e502efabf84abe148d4916cec1601ad9454457a22f58c
0ba996646f66c582706b807646b803714c85bd95ca7313af8254bac5ba09e168c32e32cca6618f9f39ee10b3e4f084af33a31e4d34ec789ba5c452666ec79f7e
e73070a45f1d549c1341312a70d378bf01b558aea38e197f80ed51bbc63ad54a86e480ada5b3d6d2903da60ad696512704fab6104dcfe37d83547b318e79dc49
2bfdfbe661a0882d6f4cbd9a76929f64a97bb089c65dae03cea7e1722e3e6e51f289124f88b7bf3aaf17933cdab6f1f697507e4658088978daf9cfcb3734ee6e
52ba738fba12eb4a9e6b95464fb772f3e0f9fa96a38c18eded9107db3fcef26b1341312a70d378bf01b558aea38e197f80ed51bbc63ad54af85f11c277ea2e2f
71dbbe87e53e082ff4d80fdf52c2bdc176826b84102d8d93523db74c08ce7c664aca57f858696d4247c6b1555096167c50283016164c2fcc663ab7e5bcfef94f
359405b79b41b671e027424c7d74e7f2ec5c511456f2845c8dcea2cdd2d3d5cc9783ae8e4821c68f44286f328a01b5597353264ebf8b05514faeff92adf05540
14116b5b1ff5095d75755f45b02833131b317dc2c22f6171e25c928e25c1c6125be1afaaab23162d3c31b72735314eab57bbf97222b9e5e59054ad295051514f
c6ada2f6665016dfae0be8cd49991eabde4effb6d2c8a4ba108e528828f8c670d69094802ebc065789b414a2ac6db25c224e502efabf84ab7724b43b0707501c
5654d587323d2333dfa090433880124ce329428e76fbcba0dacbc8f488f43cb03b0c6e5fa2ad103f75755f45b02833131b317dc2c22f6171c504b3b2b9f25a8b
acbc2f159da44eabbe00a2a37fc213af59ac38a038ce44cde3b182a3a4e2613041713fdf5bbb4521b32eae440ae09a4788b96b7c831faa4af2d5e5299905ab7b
a68ba69006c80e09157dcbb6421b12561341312a70d378bf01b558aea38e197f80ed51bbc63ad54a86e480ada5b3d6d2903da60ad6965127c4a11d0bebb6f06c
4b6085f2012636675a0aa31c52cddba976617f42cd5d956bd69094802ebc065789b414a2ac6db25c224e502efabf84abe148d4916cec1601ad9454457a22f58c
bcb0f66d0169a7782fbfcc2b872ff946799aceed98cbc82607dc12f8464ed1f09d5ed06f001fb4f8c7cc2257d9ee017ea8fd19f33527d4f26c22f8338c178f33
9783ae8e4821c68fa223a4da0518f3d61e80d4eadb9605f3fda6500b3b5cbc844f36f3433a968f5d9e21d1023dc3843be634ac9963651c2c2f57027984849114
8767f397bff4c3a731bbfa71d5efb6fe825b843a3aa9ddcdaa5c51d52a440abc2619958cce288ec8f68f6aade77db5cb02325f64270367a4295571a5115d752e
f197831ab997cb511b335ff666912215f89f53dacf3502121e77880b53d12eb4d3aa8ccd28aac12e8eb1539348fcc439ca8d627b0d2a43a87ca1ec77cbb14ade
4aa74561b2f15095151d9c1419fbf08c46efcd8ff876cce059ba48da18d20b6547c6b1555096167c50283016164c2fcc797098c792a05f902f1bd231e5251ae2
b0fb847a3b385fda151d9c1419fbf08c0c9db3f58972291d712f7945e273ad0497507e46580889781f69eb0caa589dd3b88bc428e0c4161d53fc02b8f0dd0946
d5bfd4b79d522d840dffe0c3579ef00d94b641d8d3d45970c9ff3ab73e8cb56db490693523b6edd4644126c9831a96bdd69094802ebc0657474a46a15dfe24fa
3bdfb3bcf8540f570ea7d814be1e643bb606ca3ef9965128aa5c51d52a440abc2619958cce288ec8f68f6aade77db5cb02325f64270367a4295571a5115d752e
fe3e92fc86d9c204957673035b26e32ba504113dd3079977af2a94af4ddf8b8d097076c07abb7dec47877ce679579bcb8dcea2cdd2d3d5ccd573267e41263c5c
dd06c2baef735cae2b1410deca799d731e80d4eadb9605f3fda6500b3b5cbc844f36f3433a968f5d9e21d1023dc3843be634ac9963651c2c2f57027984849114
4b6085f2012636676f3085441f0c7a2a75755f45b02833131b317dc2c22f6171e25c928e25c1c6125be1afaaab23162d3c31b72735314eabb4e0768c86bf9cdd
a9a43af108d624d49aecfedb97bcfa95ce5648eecc26382600b3fd5a983fc3033591b7d40c4cce76aa5c51d52a440abc2619958cce288ec86f291206f2cb51c9
8807bf206d8a4bf4856ac29006c3b29c4e2f6f0546467c492fd72c05e2acba428968f8e6bd462ea73d2744eab14ddbfd75755f45b0283313864ac750bf7fe5ab
e32412d8e97ecf0c5afe4f8e0010b28d08c0af7fc7dd026fe7d1dd245cbe3ceb478a87bc5b8e6cf947c6b1555096167c50283016164c2fcc663ab7e5bcfef94f
494c8cdc4253b9b4706b807646b80371f460c2a513953662b9a42c78891c1375c9322890ded6647b2d83973d231680e0f62a82a4eb4debc2842827d13ebd9516
ef87176f2f3923646a456065284e065a54fd28d1bfd218196d35d8485846d69975755f45b02833131b317dc2c22f6171e25c928e25c1c6124cd0334a336d9cbf
a1642ab168aedbca706b807646b80371fc6f5849bc48c127e37fd1fd5b420699faca85d0862a74fb0974582f2eeefdce7da2b5347ade401a2d184f076cf5cf4f
ef87176f2f3923644027cf91d4ddff8b1502cf68bd796dfdbfb565ef4c0c20ce6d35d8485846d69975755f45b02833131b317dc2c22f6171c504b3b2b9f25a8b
53fdea95e666a949706b807646b803715edafc952de784ff6ca3c770eabc9d774657b77cc0dcc0057208a85e1aefd30a6dd4a45bd8bc8b28eb6b02801230c0f4
9a2567ee2e4633ce75755f45b02833131b317dc2c22f6171e25c928e25c1c6125be1afaaab23162d3c31b72735314eab57bbf97222b9e5e59054ad295051514f
a2faec34d68cdd2a384d25398225ee67d1f5266fc03db55776e27c7c709d6f90f2a599fa722e95df71dfbaa4143f8634b5f1c17ee7956303e85b4d476637fec8
591d285dfa78c2c6b7d09b883f950c10cbdfc9991375d4e95881d2700cb40378d830d7ddc78952ba295589291f5bd0b747c6b1555096167c06ddf5b6a3772252
5637fcfd860683a95afe4f8e0010b28dee3c5f36fd2c9f8883463dd640f012e500d3e0b087c73744aa5c51d52a440abc2619958cce288ec86f291206f2cb51c9
5f41a7a4794b5367f77ad82184e60cbe27ed1929290f97bcf460c2a513953662fc366e86672e1077aa5c51d52a440abc2619958cce288ec86f291206f2cb51c9
88c1224860075c151b335ff666912215e7858b0e17339c25d1c19acc0860c377d3aa8ccd28aac12e8eb1539348fcc439ca8d627b0d2a43a87ca1ec77cbb14ade
945ac19983977c40957673035b26e32bda28f53dce68561d9bd3c45b9a49e1dc0138fbb040ad8f966790e220d7fdf7008c980e460c4bd2667ec09cef15c57fb0
1933952b4dcad44c74c7e4af17ab9cebd3aa8ccd28aac12e8eb1539348fcc439ca8d627b0d2a43a8bbab58ed3cead79a982cbf72cb7ab1fa7997c4f3ede1fc9c
8767f397bff4c3a731bbfa71d5efb6fe825b843a3aa9ddcdaa5c51d52a440abc2619958cce288ec8f68f6aade77db5cb02325f64270367a4295571a5115d752e
ae9fc42feb38e3d9706b807646b8037139d812286f7cdd4a10001558ea8f8cb08f39b859a084feb37208a85e1aefd30a5ad93c11bb1d1a279f44df125fbfeae3
fe1f99157d2855e9dbdfda7f677ecfa7644126c9831a96bdd69094802ebc065789b414a2ac6db25c224e502efabf84abe148d4916cec1601ad9454457a22f58c
be933631531f965975755f45b02833131b317dc2c22f6171e25c928e25c1c6125be1afaaab23162d3c31b72735314eab57bbf97222b9e5e59054ad295051514f
fe375f900868de242dce7963c39dbc2ebf83272658530602e1166d3dd304f32093935a871995460723ffa35baae9b87e6baa4c351fc5e3ad6c22f8338c178f33
9783ae8e4821c68fa223a4da0518f3d61e80d4eadb9605f3fda6500b3b5cbc844f36f3433a968f5d9e21d1023dc3843be634ac9963651c2c2f57027984849114
8767f397bff4c3a731bbfa71d5efb6fe102372497787b35c1e80d4eadb9605f3fda6500b3b5cbc844f36f3433a968f5d9e21d1023dc3843babfc9ae01af42c38
0382627c5bd012d4f77ad82184e60cbeb22a436ba501f4956e63f3c7fcf573413fb22967116491f2b903792d06d5e623aa5c51d52a440abcfc80cd3be5b31651
4cd2ebd83b6fa6efbe00a2a37fc213afce144884098bed797766e76e542789ba7af5e3ac3170d118d2bbd7e847d638e1e776e9b255bda08c8cc849879194c8ab
021166ac3753b7b847c6b1555096167c50283016164c2fcc797098c792a05f90a416970c2428e55bbc9c4d5e199af8234aa7da4667223b137db41705421d1ac1
4b6085f2012636675a0aa31c52cddba976617f42cd5d956bd69094802ebc065789b414a2ac6db25c224e502efabf84abe148d4916cec1601ad9454457a22f58c
8bf314ab8c03489950676b0269f4afaf6008a180e89b5e30f3760c91d5dc6a451f2c7f9be050c2558d45ee5b49279805d3aa8ccd28aac12e8faf9657848e993f
b8b56863f55c875e1604832fdc90af1c1fe193016ff78f6553f2240564553645b96b7ab2d61f3290aa5c51d52a440abc2619958cce288ec86f291206f2cb51c9
28c09a32ec8d0e412dce7963c39dbc2ebf83272658530602e1166d3dd304f32068aabd8a54414195b58626e19d95465c88b96b7c831faa4af2d5e5299905ab7b
a68ba69006c80e09157dcbb6421b12561341312a70d378bf01b558aea38e197f80ed51bbc63ad54a86e480ada5b3d6d2903da60ad6965127c4a11d0bebb6f06c
4b6085f2012636678ee5eab1ce21437bd95e0d6418284b601e80d4eadb9605f3fda6500b3b5cbc844f36f3433a968f5d9e21d1023dc3843babfc9ae01af42c38
6f23563494b56938706b807646b803715001e22ab62348e3f3760c91d5dc6a450d898cac3cc299bac32e32cca6618f9f856ac29006c3b29cfcb37d3a2d10e6d7
58e7a6e7963eec658675a01b2db95be7aa5c51d52a440abc2619958cce288ec8f68f6aade77db5cb02325f64270367a4b3a0cc91603263ddb0782a2581dea544
a63caee9fa920ac4be00a2a37fc213af1a9d914fd32749e2000e9eac91f5845739dcde7f612cd6bbd2bbd7e847d638e1e776e9b255bda08c8cc849879194c8ab
021166ac3753b7b847c6b1555096167c50283016164c2fcc797098c792a05f90a416970c2428e55bbc9c4d5e199af8234aa7da4667223b137db41705421d1ac1
4b6085f2012636675a0aa31c52cddba976617f42cd5d956bd69094802ebc065789b414a2ac6db25c224e502efabf84abe148d4916cec1601ad9454457a22f58c
b7c5025dfeaf6cf79ed675755dc333976c5a8fb74cb49b737fc376fe9ba0557945645f71759214a08318958aa75d45564651b4c215cbe2b16229de77bbf0c9c9
47158635b18b6659aa5c51d52a440abc2619958cce288ec8f68f6aade77db5cb02325f64270367a4b3a0cc91603263dd0840cdae9097678d81072e54a5c3ad0b
4b6085f2012636675a0aa31c52cddba976617f42cd5d956bd69094802ebc065789b414a2ac6db25c224e502efabf84abe148d4916cec1601ad9454457a22f58c
2ae17f31359b5c7d2dce7963c39dbc2ebf83272658530602c0e67065f416063d07bb4d20e248aea8b00d7cbf8b1a18d85314e44f8dbca9aa7846daed4c599468
4f52237e05fcdaf4b31205aa407e75cde847dda77d5f9443d69094802ebc065789b414a2ac6db25c224e502efabf84abe148d4916cec1601ad9454457a22f58c
4b6085f2012636675a0aa31c52cddba976617f42cd5d956bd69094802ebc065789b414a2ac6db25c224e502efabf84abe148d4916cec1601ad9454457a22f58c
a3aae5a2addceb3b1b335ff66691221505f59b0504ef3c9bd1c19acc0860c377d3aa8ccd28aac12e8eb1539348fcc439ca8d627b0d2a43a87ca1ec77cbb14ade
a3f576b848cd34f9c702d572f128fccc39cb26565596af8436806a8e381bf9a0d69094802ebc065789b414a2ac6db25c224e502efabf84ab7724b43b0707501c
b0eb42ca922cce59957673035b26e32b1a321616a1d1935fa724a199c1841615c12e2b5209ad704147c6b1555096167c50283016164c2fcc663ab7e5bcfef94f
fbee1ad1bedf0bfafd762a97b02f332ae73070a45f1d549c1341312a70d378bf01b558aea38e197f80ed51bbc63ad54a86e480ada5b3d6d2e0598ed7c9223540
20c509fc4459b7472fbfcc2b872ff946cc9035ed3559e36a08798a62d933b85c4d1f45b530912770b1a15fd58bbb67668dcea2cdd2d3d5ccd573267e41263c5c
dd06c2baef735cae2b1410deca799d731e80d4eadb9605f3fda6500b3b5cbc844f36f3433a968f5d9e21d1023dc3843be634ac9963651c2c2f57027984849114
4b6085f2012636675a0aa31c52cddba976617f42cd5d956bd69094802ebc065789b414a2ac6db25c224e502efabf84abe148d4916cec1601ad9454457a22f58c
24c2c7757d7db229737baa5b50665ed1b8c6b9b0435f67a99a84acdea2ad6607e37ed4c87eb17061912f7fa6ceed7d2bc2176427546f3b1f6977532780362bd2
593efcd58d475ce138380075bb5248d875755f45b02833131b317dc2c22f6171e25c928e25c1c6125be1afaaab23162d3c31b72735314eabb4e0768c86bf9cdd
cdaa385411811e27bfd81d659a09e4b32637e9cac2aa5cea2cecad1ebf804c4bf467148f06ca8e4397507e46580889781f69eb0caa589dd3789f523359c8bcb5
d36d26370afc449b151d9c1419fbf08ce3f64f200745bfbef79ed346fe02bf5dd69094802ebc065789b414a2ac6db25c224e502efabf84ab7724b43b0707501c
bedb4c285028d3892c4cbab029189320cc00db89d7bd176a5ee21fdfff53ac5975755f45b02833131b317dc2c22f6171e25c928e25c1c6124cd0334a336d9cbf
317f1bcb1e5ac862a846ce6be334df43401595fc5bf5d22036a8238a25b72279d69094802ebc065789b414a2ac6db25c224e502efabf84ab7724b43b0707501c
846dad09021724e57d49e5986a6ba9812c7d8d90bc5f0d83e8f204d758f17a301de333fbd2e0f35d97507e46580889781f69eb0caa589dd3789f523359c8bcb5
e3472fe6317a2e0b2fbfcc2b872ff94659d770e0f015d2bb57b78c0b619345c6944352ddc08d18fcfb39caa823c4ddd75911b2e9db277617789dfe9e3750721c
f448aa8b445158d3c55c8187f39b70be97507e46580889781f69eb0caa589dd3b88bc428e0c4161d0cce0bf39d27aa7897ad024f0949ecc6bfed438ee98c3697
4b6085f2012636675a0aa31c52cddba976617f42cd5d956bd69094802ebc065789b414a2ac6db25c224e502efabf84abe148d4916cec1601ad9454457a22f58c
7356e28ce86dd6f41b335ff666912215aa143bdb556d64a469af5e3ef9e3cda2d3aa8ccd28aac12e8eb1539348fcc439ca8d627b0d2a43a87ca1ec77cbb14ade
5fb5f2cfc8e81251f45310c19b6b8ee59b6179efb0df5f7b56bfede5d11cc7caaa5c51d52a440abc2619958cce288ec8f68f6aade77db5cb2e3aab0e7d7a83b0
0a83ec051a65e92fbe00a2a37fc213af1723172efcceca7b87498d614893e72b93f0978bcaae26c25e907deffd12c5ffdd06c2baef735caed656dab8877def08
998fd920f4f159aa15dda4ec81e72d7447c6b1555096167c50283016164c2fcc797098c792a05f90a416970c2428e55bbc9c4d5e199af8237c693dcf37191f9a
316c4e958281b8058396ad44395f580af4ef4b8a41afd8a2174edbf1e31d8722495a3454ef638d7247c6b1555096167c50283016164c2fcc663ab7e5bcfef94f
9554936c2d2b45f8e027424c7d74e7f2582a83f28120b379e08dea5421fb2b27dfeefad2b2d91191ef9f444082fbf6facbd766c5854dc6768e75c1b5a4d8f232
d2bbd7e847d638e1f9160e96a49a6a0597507e46580889781f69eb0caa589dd3b88bc428e0c4161d0cce0bf39d27aa7897ad024f0949ecc6bfed438ee98c3697
cdaa385411811e27bfd81d659a09e4b32637e9cac2aa5cea2cecad1ebf804c4bf467148f06ca8e4397507e46580889781f69eb0caa589dd3789f523359c8bcb5
4a1fb8bed8b5674fbe00a2a37fc213af54d5d43cf07906abc77434b740e49ce1dd6d845ce7efd0f296cc4b5209c35bf775963efd3ee34e160ff63032dc4e41c4
bfd81d659a09e4b3d24b51ea77d6888875755f45b02833131b317dc2c22f6171e25c928e25c1c6125be1afaaab23162d3c31b72735314eabb4e0768c86bf9cdd
4b6085f2012636676f3085441f0c7a2a75755f45b02833131b317dc2c22f6171e25c928e25c1c6125be1afaaab23162d3c31b72735314eabb4e0768c86bf9cdd
b8551a71a690580f1b335ff666912215d2a364479263365c9a5012b2f5807d53d3aa8ccd28aac12e8eb1539348fcc439ca8d627b0d2a43a87ca1ec77cbb14ade
951e8dcec0a6c75f1b335ff66691221510983481efe276a49b6179efb0df5f7bc3dff4cb56c7caf1aa5c51d52a440abc2619958cce288ec86f291206f2cb51c9
2381bc9879728a68e027424c7d74e7f2582a83f28120b3794ee0c3bcaf1ee4a545faf156cd919fd84d0ad0c1f559b007a286ab8191b33007c27a0fe47ba19b0a
4651b4c215cbe2b1c23cdff2c91ac450aa5c51d52a440abc2619958cce288ec8f68f6aade77db5cb02325f64270367a4b3a0cc91603263ddb0782a2581dea544
8767f397bff4c3a731bbfa71d5efb6fe825b843a3aa9ddcdaa5c51d52a440abc2619958cce288ec8f68f6aade77db5cb02325f64270367a4295571a5115d752e
8dfcdb3c46757fc11b335ff666912215fba3abd27e7c430935e966cbaae2f139d3aa8ccd28aac12e8eb1539348fcc439ca8d627b0d2a43a87ca1ec77cbb14ade
e644fc3843e7ff1bc702d572f128fccc2efe5e67014b721c108e528828f8c670d69094802ebc065789b414a2ac6db25c224e502efabf84ab7724b43b0707501c
51e1eb2985911043706b807646b803715edafc952de784ff0cedb65586e4df10e352ed517cb20c236b574213c15e8d8971d02e85d20a01d85eb03cb80eab4b00
fe1f99157d2855e9aa11a96fd77a05cad69094802ebc065789b414a2ac6db25c224e502efabf84abe148d4916cec1601df45fff901cf51b70469b78d0734d06b
188100b8691c346122c8b4d26042e06f47c6b1555096167c50283016164c2fcc797098c792a05f90a416970c2428e55bbc9c4d5e199af8237c693dcf37191f9a
0579b8ba4ddcceca1b335ff6669122154c68a10714ebda782eeb986312403d53d3aa8ccd28aac12e8eb1539348fcc439ca8d627b0d2a43a87ca1ec77cbb14ade
be7ba995faaba95c5aff51a4f4c1c48b29660fe9841904c75890486cc54a0d8160a188d940e604c11933952b4dcad44ca68ba69006c80e09d9eda28d3f69b96f
0736b9aea252cd5465bd351ff9bed562aa5c51d52a440abc2619958cce288ec8f68f6aade77db5cb02325f64270367a4b3a0cc91603263ddb0782a2581dea544
2a0dde369b0e03c9ecf4c65c9f12e0bbf97be61244c77863bd8a6dd4530238d1e847dda77d5f9443d69094802ebc065789b414a2ac6db25cef2b01bd8cfe9ce6
4756cc5ae4edb42cf77ad82184e60cbeb22a436ba501f4956e63f3c7fcf573413fb22967116491f2b903792d06d5e623aa5c51d52a440abcfc80cd3be5b31651
19783a1fc48c2a0c7250dbdf13033bfb3b78be8e821eb713f2d15f64af77b1f5b79e58da369e2f2eef1e55785497ef9b9dfff1e5c0ead0759180e5fe9672985c
6525da4cfd71409d6f4cbd9a76929f648596706ddbc498ee62d7fc06aea0b62b1341312a70d378bf01b558aea38e197f80ed51bbc63ad54af85f11c277ea2e2f
a9232fc7f904a1d7957673035b26e32bf8d97e0216783d46a29cc8cb0e34fef89a5363314a0ec7d0e9a4525d824e06d3fa68f365a2a9a9bb7846daed4c599468
4f52237e05fcdaf4b31205aa407e75cde847dda77d5f9443d69094802ebc065789b414a2ac6db25c224e502efabf84abe148d4916cec1601ad9454457a22f58c
4b6085f2012636676f3085441f0c7a2a75755f45b02833131b317dc2c22f6171e25c928e25c1c6125be1afaaab23162d3c31b72735314eabb4e0768c86bf9cdd
81bc0cb7c12452445afe4f8e0010b28da51eb311959324f766ca7d1d420a328683d3ddc762703eb45314e44f8dbca9aa5e907deffd12c5fff9224a01a31d483a
b31205aa407e75cde847dda77d5f9443d69094802ebc065789b414a2ac6db25c224e502efabf84abe148d4916cec1601df45fff901cf51b70469b78d0734d06b
4b6085f2012636675a0aa31c52cddba976617f42cd5d956bd69094802ebc065789b414a2ac6db25c224e502efabf84abe148d4916cec1601ad9454457a22f58c
61f0acdd6f1a2e99f77ad82184e60cbeb22a436ba501f4952dea3aa3b40bf9c5f8d3be278cfcb36fd3aa8ccd28aac12e8eb1539348fcc4390419d03bd4e9c69f
e9dd452c4e6cfebe0302a8c30efa8edd3a34be87e1affbfc75efce99ae1728cd75755f45b02833131b317dc2c22f6171e25c928e25c1c6124cd0334a336d9cbf
9c3e801b31a04ffeb9d15c5be4e02d49962a9f8c8c7c36b313be6193e9f54ad808eb135e841efad88318958aa75d45564651b4c215cbe2b16229de77bbf0c9c9
f47a15dc89514f6d82d2f1439037ee2f47c6b1555096167c50283016164c2fcc797098c792a05f90a416970c2428e55bbc9c4d5e199af8237c693dcf37191f9a
ca4b9342b86db891fa1d8db93f106ddfd3aa8ccd28aac12e8eb1539348fcc439ca8d627b0d2a43a8bbab58ed3cead79a982cbf72cb7ab1fa7997c4f3ede1fc9c
600062a8f6bfa7634f79a584a9ee68b582a4abca7382043fd3aa8ccd28aac12e8eb1539348fcc439ca8d627b0d2a43a8bbab58ed3cead79a2a58f3a50d449c40
$CDNENCFINISH
.ENDS LM74700-Q1_TRANS
*$
.subckt LM74700_S12 1 2 3 4  
$CDNENCSTART
eee8c5c7a2bc4b01f045f303678664e7916da0bae22e8cb0bba041dd67c69ce448ea70148a9ac1670c8926c1ac5057c8ccfcd77bf87ca9dce85b4d476637fec8
a2bb1bfa319d55b546b92e86e8aaa0ba77968c367c5eb4792f2bd09e50f291d297507e46580889781f69eb0caa589dd3b88bc428e0c4161d53fc02b8f0dd0946
eef19482dea315b11852d2bae25628728884162488a37977d3aa8ccd28aac12e8eb1539348fcc439ca8d627b0d2a43a8bbab58ed3cead79a2a58f3a50d449c40
1e7e75f62a07f7b1bbcb463bf6330e445c12dbc36bfd1b6ae75adc0303e816698be5fb7c2c224f480c2080c9c603f2a1624026ab62cb6810bfe4c60b92c2ddce
$CDNENCFINISH
.ends LM74700_S12
*$
.subckt LM74700_S10 1 2 3 4  
$CDNENCSTART
eee8c5c7a2bc4b01f045f303678664e7916da0bae22e8cb0bba041dd67c69ce448ea70148a9ac1670c8926c1ac5057c8ccfcd77bf87ca9dce85b4d476637fec8
2c5ce0287ce5ddeb46b92e86e8aaa0ba77968c367c5eb47975ba0c3b03da98f297507e46580889781f69eb0caa589dd3b88bc428e0c4161d53fc02b8f0dd0946
39deafbe7a97ca4d1852d2bae25628728884162488a37977d3aa8ccd28aac12e8eb1539348fcc439ca8d627b0d2a43a8bbab58ed3cead79a2a58f3a50d449c40
1e7e75f62a07f7b1bbcb463bf6330e44495a9bb7954552cde75adc0303e8166921f868c92bf5434e0c2080c9c603f2a1624026ab62cb6810bfe4c60b92c2ddce
$CDNENCFINISH
.ends LM74700_S10
*$
.subckt LM74700_S6 1 2 3 4  
$CDNENCSTART
eee8c5c7a2bc4b01f045f303678664e7916da0bae22e8cb0bba041dd67c69ce448ea70148a9ac1670c8926c1ac5057c8ccfcd77bf87ca9dce85b4d476637fec8
984f32a07473fb7c31820e631d1d1d74ef1e214e65ee9ca647c6b1555096167c50283016164c2fcc797098c792a05f90a416970c2428e55b7128f3e7a7ea02f5
dd1eb1f7fd6960a06f31076d2b37e96baa35006d782c6ce9aa5c51d52a440abc2619958cce288ec8f68f6aade77db5cb02325f64270367a4295571a5115d752e
1e7e75f62a07f7b1bbcb463bf6330e44dd4a5f3ed5996b330ffb76e2ddf4497b2596d65fe0df484da14a8b5daf99e095624026ab62cb6810bfe4c60b92c2ddce
$CDNENCFINISH
.ends LM74700_S6
*$
.subckt LM74700_S14 1 2 3 4  
$CDNENCSTART
eee8c5c7a2bc4b01f045f303678664e7916da0bae22e8cb0bba041dd67c69ce448ea70148a9ac1670c8926c1ac5057c8ccfcd77bf87ca9dce85b4d476637fec8
c5f84410e66fa2bb46b92e86e8aaa0ba77968c367c5eb479918245647965569297507e46580889781f69eb0caa589dd3b88bc428e0c4161d53fc02b8f0dd0946
4d32f3134100bc0d1852d2bae25628728884162488a37977d3aa8ccd28aac12e8eb1539348fcc439ca8d627b0d2a43a8bbab58ed3cead79a2a58f3a50d449c40
1e7e75f62a07f7b1bbcb463bf6330e449538d4f913b6c6f9e75adc0303e8166921f868c92bf5434ebc0f0c62e59a1e0fd0cc022fbdd7c9837be00182b10a3cbc
$CDNENCFINISH
.ends LM74700_S14
*$
.subckt LM74700_S7 1 2 3 4  
$CDNENCSTART
eee8c5c7a2bc4b01f045f303678664e7916da0bae22e8cb0bba041dd67c69ce448ea70148a9ac1670c8926c1ac5057c8ccfcd77bf87ca9dce85b4d476637fec8
ca116cfd9f503f5a31820e631d1d1d74bc43870b2068c89347c6b1555096167c50283016164c2fcc797098c792a05f90a416970c2428e55b7128f3e7a7ea02f5
22fa704315324fee6f31076d2b37e96baa35006d782c6ce9aa5c51d52a440abc2619958cce288ec8f68f6aade77db5cb02325f64270367a4295571a5115d752e
1e7e75f62a07f7b1bbcb463bf6330e44b8257e7c370c44b80ffb76e2ddf4497b5f2430ae0c20a12d897616b9cde97b972c84434bed0c637ad885f5493ac90689
$CDNENCFINISH
.ends LM74700_S7
*$
.subckt LM74700_S11 1 2 3 4  
$CDNENCSTART
eee8c5c7a2bc4b01f045f303678664e7916da0bae22e8cb0bba041dd67c69ce448ea70148a9ac1670c8926c1ac5057c8ccfcd77bf87ca9dce85b4d476637fec8
e78fee54ef52378d46b92e86e8aaa0ba77968c367c5eb479879f0c9fbb8e400197507e46580889781f69eb0caa589dd3b88bc428e0c4161d53fc02b8f0dd0946
699fd6531918f3dc1852d2bae25628728884162488a37977d3aa8ccd28aac12e8eb1539348fcc439ca8d627b0d2a43a8bbab58ed3cead79a2a58f3a50d449c40
1e7e75f62a07f7b1bbcb463bf6330e44575ba129fd85412be75adc0303e816698be5fb7c2c224f480c2080c9c603f2a1624026ab62cb6810bfe4c60b92c2ddce
$CDNENCFINISH
.ends LM74700_S11
*$
.subckt LM74700_S8 1 2 3 4  
$CDNENCSTART
eee8c5c7a2bc4b01f045f303678664e7916da0bae22e8cb0bba041dd67c69ce448ea70148a9ac1670c8926c1ac5057c8ccfcd77bf87ca9dce85b4d476637fec8
48cad54cbc66f42d31820e631d1d1d740e2409c315f54dec47c6b1555096167c50283016164c2fcc797098c792a05f90a416970c2428e55b7128f3e7a7ea02f5
e65d04c3f5d7c4236f31076d2b37e96baa35006d782c6ce9aa5c51d52a440abc2619958cce288ec8f68f6aade77db5cb02325f64270367a4295571a5115d752e
1e7e75f62a07f7b1bbcb463bf6330e44a0cccacb04419cb30ffb76e2ddf4497b2661590815226ffba14a8b5daf99e095624026ab62cb6810bfe4c60b92c2ddce
$CDNENCFINISH
.ends LM74700_S8
*$
.subckt LM74700_S13 1 2 3 4  
$CDNENCSTART
eee8c5c7a2bc4b01f045f303678664e7916da0bae22e8cb0bba041dd67c69ce448ea70148a9ac1670c8926c1ac5057c8ccfcd77bf87ca9dce85b4d476637fec8
cac64a474f6db0d746b92e86e8aaa0ba77968c367c5eb479ed483728f87a2ff597507e46580889781f69eb0caa589dd3b88bc428e0c4161d53fc02b8f0dd0946
204d864dd5c51c161852d2bae25628728884162488a37977d3aa8ccd28aac12e8eb1539348fcc439ca8d627b0d2a43a8bbab58ed3cead79a2a58f3a50d449c40
1e7e75f62a07f7b1bbcb463bf6330e442a2f0d2b46524d4ce75adc0303e816698be5fb7c2c224f480c2080c9c603f2a1624026ab62cb6810bfe4c60b92c2ddce
$CDNENCFINISH
.ends LM74700_S13
*$
.model D_D d 
$CDNENCSTART
eee8c5c7a2bc4b01f045f303678664e7916da0bae22e8cb0bba041dd67c69ce448ea70148a9ac1670c8926c1ac5057c8ccfcd77bf87ca9dce85b4d476637fec8
f7a854a98d732f8b65b706867a9136e61341312a70d378bf01b558aea38e197f80ed51bbc63ad54a86e480ada5b3d6d2903da60ad6965127c4a11d0bebb6f06c
39c84b0c9f72e0078e024cbd033ee0af1341312a70d378bf01b558aea38e197f80ed51bbc63ad54a86e480ada5b3d6d2903da60ad6965127c4a11d0bebb6f06c
0660a0f5c4a1d536aad0cae5ebf3019ad69094802ebc065789b414a2ac6db25c224e502efabf84abe148d4916cec1601df45fff901cf51b70469b78d0734d06b
bb2b3db9c7a1915536806a8e381bf9a0d69094802ebc065789b414a2ac6db25c224e502efabf84abe148d4916cec1601df45fff901cf51b70469b78d0734d06b
$CDNENCFINISH
*$
.SUBCKT AND2_BASIC_GEN A B Y PARAMS: VDD=1 VSS=0 VTHRESH=0.5 
$CDNENCSTART
eee8c5c7a2bc4b01f045f303678664e7916da0bae22e8cb0bba041dd67c69ce448ea70148a9ac1670c8926c1ac5057c8ccfcd77bf87ca9dce85b4d476637fec8
f305b7cfa07651615a9037c8c42a602b94aebb18efc1b73c4a0534bc16c6b751d67091752c09698a1541fe9d381cc675621f57e8bf9b586ed1a81921e30614e1
ce312808b0a91175dcf306adebf133c01a6c7500361cb5a45652e10015a645e7e71f71e187584171d69094802ebc065789b414a2ac6db25cef2b01bd8cfe9ce6
bd9831b9881f0b92e8f02e93fcf213a8d3aa8ccd28aac12e8eb1539348fcc439ca8d627b0d2a43a8bbab58ed3cead79a982cbf72cb7ab1fa7997c4f3ede1fc9c
02f2959404528fbd9ad2dc2e0af5de0e1341312a70d378bf01b558aea38e197f80ed51bbc63ad54a86e480ada5b3d6d2903da60ad6965127c4a11d0bebb6f06c
$CDNENCFINISH
.ENDS AND2_BASIC_GEN
*$
.SUBCKT COMP_BASIC_GEN INP INM Y PARAMS: VDD=1 VSS=0 VTHRESH=0.5	
$CDNENCSTART
eee8c5c7a2bc4b01f045f303678664e7916da0bae22e8cb0bba041dd67c69ce448ea70148a9ac1670c8926c1ac5057c8ccfcd77bf87ca9dce85b4d476637fec8
324d0b28bd3976fec3fa3d1e401a4503c7cd3c6de157579e2a235350161d1bcb644126c9831a96bdd69094802ebc065789b414a2ac6db25cef2b01bd8cfe9ce6
31a245cc4f39b9f1af5040d5c61521d091d34273a8fcd1de1e80d4eadb9605f3fda6500b3b5cbc844f36f3433a968f5d9e21d1023dc3843babfc9ae01af42c38
3b7f5ebe940d64624170694978eb4cf81341312a70d378bf01b558aea38e197f80ed51bbc63ad54a86e480ada5b3d6d2903da60ad6965127c4a11d0bebb6f06c
b076ff8d9576189163285b2908224391d69094802ebc065789b414a2ac6db25c224e502efabf84abe148d4916cec1601df45fff901cf51b70469b78d0734d06b
$CDNENCFINISH
.ENDS COMP_BASIC_GEN
*$
.SUBCKT RVAR 101 102 201 202 Params: Rref=1
* nodes : 101 102 : nodes between which variable resistance is placed
* 201 202 : nodes to whose voltage the resistance is proportional
* parameters : rref : reference value of the resistance
$CDNENCSTART
eee8c5c7a2bc4b01f045f303678664e7916da0bae22e8cb0bba041dd67c69ce448ea70148a9ac1670c8926c1ac5057c8ccfcd77bf87ca9dce85b4d476637fec8
03a72033fa396735b5a6c1b09a403b1b0dd06ebc635320987b16b2a70d096e3247c6b1555096167c50283016164c2fcc797098c792a05f902f1bd231e5251ae2
0ae162e9a25dd7cc0459832624a30d7d75755f45b02833131b317dc2c22f6171e25c928e25c1c6125be1afaaab23162d3c31b72735314eabb4e0768c86bf9cdd
66bd19e9e2f16d7e9bc2642c701d8667295d83d7f605939a2558e19a3e03e8a399133f688964bbc640132f530bb63bd347c6b1555096167c06ddf5b6a3772252
10d855d270a369be466cdf18a9bead5f349b602899f8bbedb3ba8125be5a604d3de5f2dc00136d44617e2c56c92ddf692ec256068d8de7d479d5b5f6e61e540b
62b251d411d9da11b307fcf508fbdf7d97507e46580889781f69eb0caa589dd3b88bc428e0c4161d0cce0bf39d27aa7897ad024f0949ecc6bfed438ee98c3697
d24ef5d8989b1775c27ce6dcfe8d116f95f511db5b25066369b3ab0525566b9aaa5c51d52a440abc2619958cce288ec8f68f6aade77db5cb2e3aab0e7d7a83b0
$CDNENCFINISH
.ENDS RVAR
*$
.SUBCKT INV_BASIC_GEN A  Y PARAMS: VDD=1 VSS=0 VTHRESH=0.5 
$CDNENCSTART
eee8c5c7a2bc4b01f045f303678664e7916da0bae22e8cb0bba041dd67c69ce448ea70148a9ac1670c8926c1ac5057c8ccfcd77bf87ca9dce85b4d476637fec8
f305b7cfa07651615a9037c8c42a602b94aebb18efc1b73c4a0534bc16c6b751d67091752c09698a1541fe9d381cc675040397452ddd0415e85b4d476637fec8
97a44fd04201403ec4d5e8dbd1cb68c547c6b1555096167c50283016164c2fcc797098c792a05f90a416970c2428e55bbc9c4d5e199af8237c693dcf37191f9a
bd9831b9881f0b92e8f02e93fcf213a8d3aa8ccd28aac12e8eb1539348fcc439ca8d627b0d2a43a8bbab58ed3cead79a982cbf72cb7ab1fa7997c4f3ede1fc9c
02f2959404528fbd9ad2dc2e0af5de0e1341312a70d378bf01b558aea38e197f80ed51bbc63ad54a86e480ada5b3d6d2903da60ad6965127c4a11d0bebb6f06c
$CDNENCFINISH
.ENDS INV_BASIC_GEN
*$
**Reset has higher priority in this latch 
.SUBCKT SRLATCHRHP_BASIC_GEN S R Q QB PARAMS: VDD=1 VSS=0 VTHRESH=0.5  
$CDNENCSTART
eee8c5c7a2bc4b01f045f303678664e7916da0bae22e8cb0bba041dd67c69ce448ea70148a9ac1670c8926c1ac5057c8ccfcd77bf87ca9dce85b4d476637fec8
08e147163f37b483eb1553db51121b0af03ffeaf6f4cc2495403a992dada814087dbbe4c721b28118ac3abcaf6d8f63e75c06ff6952a82ffe54dea19fa791efd
030b252e024c556c75755f45b02833131b317dc2c22f6171e25c928e25c1c6125be1afaaab23162d3c31b72735314eab57bbf97222b9e5e59054ad295051514f
a405048fcac30c1a77b95916f96d463b47c6b1555096167c50283016164c2fcc797098c792a05f90a416970c2428e55bbc9c4d5e199af8237c693dcf37191f9a
b75a50bb44e3b503f2667b5cb330c5cf7d9a27b91a009a4ad3aa8ccd28aac12e8eb1539348fcc439ca8d627b0d2a43a8bbab58ed3cead79a2a58f3a50d449c40
1033be605ac86fd802147ff4d5c4cb2f4f8181b227c1b6b5aa5c51d52a440abc2619958cce288ec8f68f6aade77db5cb02325f64270367a4295571a5115d752e